%chk=S0.chk
%mem=1200mb
%nprocshared=1
#p ub3lyp/sto-3g guess=read scf=maxcycle=999
 
T1
 
0 1
C
F                  1            B1
F                  1            B2    2            A1
F                  1            B3    2            A2    3            D1    0
C                  1            B4    4            A3    3            D2    0
N                  5            B5    1            A4    4            D3    0
O                  1            B6    4            A5    3            D4    0

    B1     =     1.323055
    B2     =     1.321076
    B3     =     1.318259
    B4     =     1.733557
    B5     =     1.285733
    B6     =     2.513619
    A1     =     110.432041
    A2     =     109.824714
    A3     =     104.520632
    A4     =     97.910373
    A5     =     80.26383
    D1     =     120.446244
    D2     =     122.971688
    D3     =     -163.921473
    D4     =     130.749547

   
   
