%chk=D:\ChemGo\ChemGo\test\MECP\ZengXQ_2016\S0.chk
%mem=1000MB
%nprocshared=1
#p ub3lyp/sto-3g scf=maxcycle=300 IOP(7/33=1) freq=noraman

T1

0 1
 C                  0.00000000    0.00000000    0.00000000
 F                  0.00000000    0.00000000    1.32305500
 F                  1.23796303    0.00000000   -0.46118253
 F                 -0.62841167   -1.06912379   -0.44707927
 C                 -0.96954538    1.33170083   -0.54016157
 N                 -0.10168677    2.26432074   -0.36652142
 O                 -2.10157181    1.07323766   -0.86593149


