%chk=LiuKun1.chk
%mem=60gb
%nprocshared=12
#p b3lyp/aug-cc-pvtz scf=maxcycle=999 opt freq
 
T1
 
0 1
H
N                  1            B1
C                  2            B2    1            A1
O                  3            B3    2            A2    1            D1    0

    B1     =     1.050704
    B2     =     1.362634
    B3     =     1.234184
    A1     =     107.745715
    A2     =     134.097937
    D1     =     180.048437

 
