%mem=1000mb
%chk=LiuKun2.chk
#p sto-3g scf=maxcycle=200  hf freq=noraman IOP(7/33=1)

T1

0 3
H
N                  1            B1
C                  2            B2    1            A1
O                  3            B3    2            A2    1            D1    0

B1     =     1.03842251646093
B2     =     1.36220272207306
B3     =     1.23475599804373
A1     =     107.844602091818
A2     =     134.089130438419
D1     =     180.000002690097



