%mem=1000mb
%chk=LiuKun1.chk
#p sto-3g scf=maxcycle=200  hf freq=noraman IOP(7/33=1)

T1

0 1
H
N                  1            B1
C                  2            B2    1            A1
O                  3            B3    2            A2    1            D1    0

B1     =     0.8585042248724
B2     =     1.34746066598988
B3     =     1.24805096393998
A1     =     108.28417871673
A2     =     133.722576960361
D1     =     180.257497442352



